# MODFLOW2000 Discretization File
 7  201  274 108  4  2
 0 0 0 0 0 0 0
        12   1.00000(10E12.4)                   -1
  2.0000e+02  2.0000e+02  2.0000e+02  2.0000e+02  2.0000e+02  2.0000e+02  2.0000e+02  2.0000e+02  2.0000e+02  2.0000e+02
  2.0000e+02  2.0000e+02  2.0000e+02  2.0000e+02  2.0000e+02  2.0000e+02  2.0000e+02  2.0000e+02  2.0000e+02  2.0000e+02
  2.0000e+02  2.0000e+02  2.0000e+02  2.0000e+02  2.0000e+02  2.0000e+02  2.0000e+02  2.0000e+02  2.0000e+02  2.0000e+02
  2.0000e+02  1.0000e+02  1.0000e+02  1.0000e+02  1.0000e+02  1.0000e+02  1.0000e+02  1.0000e+02  1.0000e+02  1.0000e+02
  1.0000e+02  1.0000e+02  1.0000e+02  1.0000e+02  1.0000e+02  1.0000e+02  1.0000e+02  1.0000e+02  1.0000e+02  1.0000e+02
  1.0000e+02  1.0000e+02  1.0000e+02  1.0000e+02  1.0000e+02  1.0000e+02  1.0000e+02  1.0000e+02  1.0000e+02  1.0000e+02
  1.0000e+02  1.0000e+02  1.0000e+02  1.0000e+02  1.0000e+02  1.0000e+02  1.0000e+02  1.0000e+02  1.0000e+02  1.0000e+02
  1.0000e+02  1.0000e+02  1.0000e+02  1.0000e+02  1.0000e+02  1.0000e+02  1.0000e+02  1.0000e+02  1.0000e+02  1.0000e+02
  1.0000e+02  1.0000e+02  1.0000e+02  1.0000e+02  1.0000e+02  1.0000e+02  1.0000e+02  1.0000e+02  1.0000e+02  1.0000e+02
  1.0000e+02  1.0000e+02  1.0000e+02  1.0000e+02  1.0000e+02  1.0000e+02  1.0000e+02  1.0000e+02  1.0000e+02  1.0000e+02
  1.0000e+02  1.0000e+02  1.0000e+02  1.0000e+02  1.0000e+02  1.0000e+02  1.0000e+02  1.0000e+02  1.0000e+02  1.0000e+02
  1.0000e+02  1.0000e+02  1.0000e+02  1.0000e+02  1.0000e+02  1.0000e+02  1.0000e+02  1.0000e+02  1.0000e+02  1.0000e+02
  1.0000e+02  1.0000e+02  1.0000e+02  1.0000e+02  1.0000e+02  1.0000e+02  1.0000e+02  1.0000e+02  1.0000e+02  1.0000e+02
  1.0000e+02  1.0000e+02  1.0000e+02  1.0000e+02  1.0000e+02  1.0000e+02  1.0000e+02  1.0000e+02  1.0000e+02  1.0000e+02
  1.0000e+02  1.0000e+02  1.0000e+02  1.0000e+02  1.0000e+02  1.0000e+02  1.0000e+02  1.0000e+02  1.0000e+02  1.0000e+02
  1.0000e+02  1.0000e+02  1.0000e+02  1.0000e+02  1.0000e+02  1.0000e+02  1.0000e+02  1.0000e+02  1.0000e+02  1.0000e+02
  1.0000e+02  1.0000e+02  1.0000e+02  1.0000e+02  1.0000e+02  1.0000e+02  1.0000e+02  1.0000e+02  1.0000e+02  1.0000e+02
  1.0000e+02  1.0000e+02  1.0000e+02  1.0000e+02  1.0000e+02  1.0000e+02  1.0000e+02  1.0000e+02  1.0000e+02  1.0000e+02
  1.0000e+02  1.0000e+02  1.0000e+02  1.0000e+02  1.0000e+02  1.0000e+02  1.0000e+02  1.0000e+02  1.0000e+02  1.0000e+02
  1.0000e+02  1.0000e+02  1.0000e+02  1.0000e+02  1.0000e+02  1.0000e+02  1.0000e+02  1.0000e+02  1.0000e+02  1.0000e+02
  1.0000e+02  1.0000e+02  1.0000e+02  2.0000e+02  2.0000e+02  2.0000e+02  2.0000e+02  2.0000e+02  2.0000e+02  2.0000e+02
  2.0000e+02  2.0000e+02  2.0000e+02  2.0000e+02  2.0000e+02  2.0000e+02  2.0000e+02  2.0000e+02  2.0000e+02  2.0000e+02
  2.0000e+02  2.0000e+02  2.0000e+02  2.0000e+02  2.0000e+02  2.0000e+02  2.0000e+02  2.0000e+02  2.0000e+02  2.0000e+02
  2.0000e+02  2.0000e+02  2.0000e+02  2.0000e+02  2.0000e+02  2.0000e+02  2.0000e+02  2.0000e+02  2.0000e+02  2.0000e+02
  2.0000e+02  2.0000e+02  2.0000e+02  2.0000e+02  2.0000e+02  2.0000e+02  2.0000e+02  2.0000e+02  2.0000e+02  2.0000e+02
  2.0000e+02  2.0000e+02  2.0000e+02  2.0000e+02  2.0000e+02  2.0000e+02  2.0000e+02  2.0000e+02  2.0000e+02  2.0000e+02
  2.0000e+02  2.0000e+02  2.0000e+02  2.0000e+02  2.0000e+02  2.0000e+02  2.0000e+02  2.0000e+02  2.0000e+02  2.0000e+02
  2.0000e+02  2.0000e+02  2.0000e+02  2.0000e+02
        12   1.00000(10E12.4)                   -1
  1.0000e+02  1.0000e+02  1.0000e+02  1.0000e+02  1.0000e+02  1.0000e+02  1.0000e+02  1.0000e+02  1.0000e+02  1.0000e+02
  1.0000e+02  1.0000e+02  1.0000e+02  1.0000e+02  1.0000e+02  1.0000e+02  1.0000e+02  1.0000e+02  1.0000e+02  1.0000e+02
  1.0000e+02  1.0000e+02  1.0000e+02  1.0000e+02  1.0000e+02  1.0000e+02  1.0000e+02  1.0000e+02  1.0000e+02  1.0000e+02
  1.0000e+02  1.0000e+02  1.0000e+02  1.0000e+02  1.0000e+02  1.0000e+02  1.0000e+02  1.0000e+02  1.0000e+02  1.0000e+02
  1.0000e+02  1.0000e+02  1.0000e+02  1.0000e+02  1.0000e+02  1.0000e+02  1.0000e+02  1.0000e+02  1.0000e+02  1.0000e+02
  1.0000e+02  1.0000e+02  1.0000e+02  1.0000e+02  1.0000e+02  1.0000e+02  1.0000e+02  1.0000e+02  1.0000e+02  1.0000e+02
  1.0000e+02  1.0000e+02  1.0000e+02  1.0000e+02  1.0000e+02  1.0000e+02  1.0000e+02  1.0000e+02  1.0000e+02  1.0000e+02
  1.0000e+02  1.0000e+02  1.0000e+02  1.0000e+02  1.0000e+02  1.0000e+02  1.0000e+02  1.0000e+02  1.0000e+02  1.0000e+02
  1.0000e+02  1.0000e+02  1.0000e+02  1.0000e+02  1.0000e+02  1.0000e+02  1.0000e+02  1.0000e+02  1.0000e+02  1.0000e+02
  1.0000e+02  1.0000e+02  1.0000e+02  1.0000e+02  1.0000e+02  1.0000e+02  1.0000e+02  1.0000e+02  1.0000e+02  1.0000e+02
  1.0000e+02  1.0000e+02  1.0000e+02  1.0000e+02  1.0000e+02  1.0000e+02  1.0000e+02  1.0000e+02  1.0000e+02  1.0000e+02
  1.0000e+02  1.0000e+02  1.0000e+02  1.0000e+02  1.0000e+02  1.0000e+02  1.0000e+02  1.0000e+02  1.0000e+02  1.0000e+02
  1.0000e+02  1.0000e+02  1.0000e+02  1.0000e+02  1.0000e+02  1.0000e+02  1.0000e+02  1.0000e+02  1.0000e+02  1.0000e+02
  1.0000e+02  1.0000e+02  1.0000e+02  1.0000e+02  1.0000e+02  1.0000e+02  2.0000e+02  2.0000e+02  2.0000e+02  2.0000e+02
  2.0000e+02  2.0000e+02  2.0000e+02  2.0000e+02  2.0000e+02  2.0000e+02  2.0000e+02  2.0000e+02  2.0000e+02  2.0000e+02
  2.0000e+02  2.0000e+02  2.0000e+02  2.0000e+02  2.0000e+02  2.0000e+02  2.0000e+02  2.0000e+02  2.0000e+02  2.0000e+02
  2.0000e+02  2.0000e+02  2.0000e+02  2.0000e+02  2.0000e+02  2.0000e+02  2.0000e+02  2.0000e+02  2.0000e+02  2.0000e+02
  2.0000e+02  2.0000e+02  2.0000e+02  2.0000e+02  2.0000e+02  2.0000e+02  2.0000e+02  2.0000e+02  2.0000e+02  2.0000e+02
  2.0000e+02  2.0000e+02  2.0000e+02  2.0000e+02  2.0000e+02  2.0000e+02  2.0000e+02  2.0000e+02  2.0000e+02  2.0000e+02
  2.0000e+02  2.0000e+02  2.0000e+02  2.0000e+02  2.0000e+02  2.0000e+02  2.0000e+02  2.0000e+02  2.0000e+02  2.0000e+02
  2.0000e+02
OPEN/CLOSE top1.ref   1.00000   (10e15.7)                   -1
OPEN/CLOSE bot1.ref   1.00000   (10e15.7)                   -1
OPEN/CLOSE bot2.ref   1.00000   (10e15.7)                   -1
OPEN/CLOSE bot3.ref   1.00000   (10e15.7)                   -1
OPEN/CLOSE bot4.ref   1.00000   (10e15.7)                   -1
OPEN/CLOSE bot5_FY79_03_116d.ref   1.00000   (10e14.6)                   -1
OPEN/CLOSE bot6_FY79_03_116d.ref   1.00000   (10e14.6)                   -1
OPEN/CLOSE bot7_FY79_03_116d.ref   1.00000   (10e14.6)                   -1
31	1	1	TR
28	1	1	TR
31	1	1	TR
30	1	1	TR
31	1	1	TR
30	1	1	TR
31	1	1	TR
31	1	1	TR
30	1	1	TR
31	1	1	TR
30	1	1	TR
31	1	1	TR
31	1	1	TR
29	1	1	TR
31	1	1	TR
30	1	1	TR
31	1	1	TR
30	1	1	TR
31	1	1	TR
31	1	1	TR
30	1	1	TR
31	1	1	TR
30	1	1	TR
31	1	1	TR
31	1	1	TR
28	1	1	TR
31	1	1	TR
30	1	1	TR
31	1	1	TR
30	1	1	TR
31	1	1	TR
31	1	1	TR
30	1	1	TR
31	1	1	TR
30	1	1	TR
31	1	1	TR
31	1	1	TR
28	1	1	TR
31	1	1	TR
30	1	1	TR
31	1	1	TR
30	1	1	TR
31	1	1	TR
31	1	1	TR
30	1	1	TR
31	1	1	TR
30	1	1	TR
31	1	1	TR
31	1	1	TR
28	1	1	TR
31	1	1	TR
30	1	1	TR
31	1	1	TR
30	1	1	TR
31	1	1	TR
31	1	1	TR
30	1	1	TR
31	1	1	TR
30	1	1	TR
31	1	1	TR
31	1	1	TR
29	1	1	TR
31	1	1	TR
30	1	1	TR
31	1	1	TR
30	1	1	TR
31	1	1	TR
31	1	1	TR
30	1	1	TR
31	1	1	TR
30	1	1	TR
31	1	1	TR
31	1	1	TR
28	1	1	TR
31	1	1	TR
30	1	1	TR
31	1	1	TR
30	1	1	TR
31	1	1	TR
31	1	1	TR
30	1	1	TR
31	1	1	TR
30	1	1	TR
31	1	1	TR
31	1	1	TR
28	1	1	TR
31	1	1	TR
30	1	1	TR
31	1	1	TR
30	1	1	TR
31	1	1	TR
31	1	1	TR
30	1	1	TR
31	1	1	TR
30	1	1	TR
31	1	1	TR
31	1	1	TR
28	1	1	TR
31	1	1	TR
30	1	1	TR
31	1	1	TR
30	1	1	TR
31	1	1	TR
31	1	1	TR
30	1	1	TR
31	1	1	TR
30	1	1	TR
31	1	1	TR
