# MODFLOW2000 HFB File
  0  0 120
         6        31       197        31       198  6.92E-03
         6        32       197        32       198  6.92E-03
         6        33       197        33       198  6.92E-03
         6        34       197        34       198  6.92E-03
         6        35       197        35       198  6.92E-03
         6        36       197        36       198  6.92E-03
         6        37       197        37       198  6.92E-03
         6        38       197        38       198  6.92E-03
         6        39       197        39       198  6.92E-03
         6        40       197        40       198  6.92E-03
         6        41       197        41       198  6.92E-03
         6        42       197        42       198  6.92E-03
         6        43       197        43       198  6.92E-03
         6        44       197        44       198  6.92E-03
         6        45       197        45       198  6.92E-03
         6        46       197        46       198  6.92E-03
         6        47       197        47       198  6.92E-03
         6        48       197        48       198  6.92E-03
         6        49       197        49       198  6.92E-03
         6        50       197        50       198  6.92E-03
         6        51       197        51       198  6.92E-03
         6        52       197        52       198  6.92E-03
         6        53       197        53       198  6.92E-03
         6        54       197        54       198  6.92E-03
         6        55       197        55       198  6.92E-03
         6        56       197        56       198  6.92E-03
         6        57       197        57       198  6.92E-03
         6        58       197        58       198  6.92E-03
         6        59       197        59       198  6.92E-03
         6        60       197        60       198  6.92E-03
         6        61       197        61       198  6.92E-03
         6        62       197        62       198  6.92E-03
         6        63       197        63       198  6.92E-03
         6        64       197        64       198  6.92E-03
         6        65       197        65       198  6.92E-03
         6        66       197        66       198  6.92E-03
         6        67       197        67       198  6.92E-03
         6        68       197        68       198  6.92E-03
         6        69       197        69       198  6.92E-03
         6        70       197        70       198  6.92E-03
         6        71       197        71       198  6.92E-03
         6        72       197        72       198  6.92E-03
         6        73       197        73       198  6.92E-03
         6        74       197        74       198  6.92E-03
         6        75       197        75       198  6.92E-03
         6        76       197        76       198  6.92E-03
         6        77       197        77       198  6.92E-03
         6        78       197        78       198  6.92E-03
         6        79       197        79       198  6.92E-03
         6        80       197        80       198  6.92E-03
         6        81       197        81       198  6.92E-03
         6        82       197        82       198  6.92E-03
         6        83       197        83       198  6.92E-03
         6        84       197        84       198  6.92E-03
         6        85       197        85       198  6.92E-03
         6        86       197        86       198  6.92E-03
         6        87       197        87       198  6.92E-03
         6        88       197        88       198  6.92E-03
         6        89       197        89       198  6.92E-03
         6        90       197        90       198  6.92E-03
         7        31       197        31       198  0.00692
         7        32       197        32       198  0.00692
         7        33       197        33       198  0.00692
         7        34       197        34       198  0.00692
         7        35       197        35       198  0.00692
         7        36       197        36       198  0.00692
         7        37       197        37       198  0.00692
         7        38       197        38       198  0.00692
         7        39       197        39       198  0.00692
         7        40       197        40       198  0.00692
         7        41       197        41       198  0.00692
         7        42       197        42       198  0.00692
         7        43       197        43       198  0.00692
         7        44       197        44       198  0.00692
         7        45       197        45       198  0.00692
         7        46       197        46       198  0.00692
         7        47       197        47       198  0.00692
         7        48       197        48       198  0.00692
         7        49       197        49       198  0.00692
         7        50       197        50       198  0.00692
         7        51       197        51       198  0.00692
         7        52       197        52       198  0.00692
         7        53       197        53       198  0.00692
         7        54       197        54       198  0.00692
         7        55       197        55       198  0.00692
         7        56       197        56       198  0.00692
         7        57       197        57       198  0.00692
         7        58       197        58       198  0.00692
         7        59       197        59       198  0.00692
         7        60       197        60       198  0.00692
         7        61       197        61       198  0.00692
         7        62       197        62       198  0.00692
         7        63       197        63       198  0.00692
         7        64       197        64       198  0.00692
         7        65       197        65       198  0.00692
         7        66       197        66       198  0.00692
         7        67       197        67       198  0.00692
         7        68       197        68       198  0.00692
         7        69       197        69       198  0.00692
         7        70       197        70       198  0.00692
         7        71       197        71       198  0.00692
         7        72       197        72       198  0.00692
         7        73       197        73       198  0.00692
         7        74       197        74       198  0.00692
         7        75       197        75       198  0.00692
         7        76       197        76       198  0.00692
         7        77       197        77       198  0.00692
         7        78       197        78       198  0.00692
         7        79       197        79       198  0.00692
         7        80       197        80       198  0.00692
         7        81       197        81       198  0.00692
         7        82       197        82       198  0.00692
         7        83       197        83       198  0.00692
         7        84       197        84       198  0.00692
         7        85       197        85       198  0.00692
         7        86       197        86       198  0.00692
         7        87       197        87       198  0.00692
         7        88       197        88       198  0.00692
         7        89       197        89       198  0.00692
         7        90       197        90       198  0.00692
    0
