# MODFLOW2000 Constant-Head Boundary Package (CHD) written by Create_CHD_P2R_V1
      1000
       294                                              STRESS PERIOD	1	JAN	2015
         2         1        26   123.276   123.276
         3         1        26   123.276   123.276
         2         2        24   123.276   123.276
         3         2        24   123.276   123.276
         4         2        24   123.276   123.276
         5         2        24   123.276   123.276
         6         2        24   123.276   123.276
         7         2        24   123.276   123.276
         2         2        25   123.276   123.276
         3         2        25   123.276   123.276
         4         2        25   123.276   123.276
         5         2        25   123.276   123.276
         6         2        25   123.276   123.276
         7         2        25   123.276   123.276
         5         3        19   123.276   123.276
         6         3        19   123.276   123.276
         5         3        20   123.276   123.276
         6         3        20   123.276   123.276
         7         3        20   123.276   123.276
         4         3        21   123.276   123.276
         5         3        21   123.276   123.276
         6         3        21   123.276   123.276
         7         3        21   123.276   123.276
         3         3        22   123.276   123.276
         4         3        22   123.276   123.276
         5         3        22   123.276   123.276
         6         3        22   123.276   123.276
         7         3        22   123.276   123.276
         3         3        23   123.276   123.276
         4         3        23   123.276   123.276
         5         3        23   123.276   123.276
         6         3        23   123.276   123.276
         7         3        23   123.276   123.276
         3         8       110   121.789   121.789
         4         8       110   121.789   121.789
         5         8       110   121.789   121.789
         2         8       111   121.789   121.789
         3         8       111   121.789   121.789
         4         8       111   121.789   121.789
         5         8       111   121.789   121.789
         2         8       112   121.789   121.789
         3         8       112   121.789   121.789
         4         8       112   121.789   121.789
         5         8       112   121.789   121.789
         2         8       113   121.789   121.789
         3         8       113   121.789   121.789
         4         8       113   121.789   121.789
         5         8       113   121.789   121.789
         2         8       114   121.789   121.789
         3         8       114   121.789   121.789
         4         8       114   121.789   121.789
         5         8       114   121.789   121.789
         2         8       115   121.789   121.789
         3         8       115   121.789   121.789
         4         8       115   121.789   121.789
         5         8       115   121.789   121.789
         5         9        88   121.789   121.789
         4         9        89   121.789   121.789
         5         9        89   121.789   121.789
         4         9        90   121.789   121.789
         5         9        90   121.789   121.789
         3         9        91   121.789   121.789
         4         9        91   121.789   121.789
         5         9        91   121.789   121.789
         3         9        92   121.789   121.789
         4         9        92   121.789   121.789
         5         9        92   121.789   121.789
         3         9        93   121.789   121.789
         4         9        93   121.789   121.789
         5         9        93   121.789   121.789
         3         9        94   121.789   121.789
         4         9        94   121.789   121.789
         5         9        94   121.789   121.789
         3         9        95   121.789   121.789
         4         9        95   121.789   121.789
         5         9        95   121.789   121.789
         3         9        96   121.789   121.789
         4         9        96   121.789   121.789
         5         9        96   121.789   121.789
         6         9        96   121.789   121.789
         7         9        96   121.789   121.789
         3         9        97   121.789   121.789
         4         9        97   121.789   121.789
         5         9        97   121.789   121.789
         6         9        97   121.789   121.789
         7         9        97   121.789   121.789
         3         9        98   121.789   121.789
         4         9        98   121.789   121.789
         5         9        98   121.789   121.789
         6         9        98   121.789   121.789
         7         9        98   121.789   121.789
         3         9        99   121.789   121.789
         4         9        99   121.789   121.789
         5         9        99   121.789   121.789
         6         9        99   121.789   121.789
         7         9        99   121.789   121.789
         3         9       100   121.789   121.789
         4         9       100   121.789   121.789
         5         9       100   121.789   121.789
         6         9       100   121.789   121.789
         7         9       100   121.789   121.789
         3         9       101   121.789   121.789
         4         9       101   121.789   121.789
         5         9       101   121.789   121.789
         6         9       101   121.789   121.789
         7         9       101   121.789   121.789
         3         9       102   121.789   121.789
         4         9       102   121.789   121.789
         5         9       102   121.789   121.789
         6         9       102   121.789   121.789
         7         9       102   121.789   121.789
         3         9       103   121.789   121.789
         4         9       103   121.789   121.789
         5         9       103   121.789   121.789
         6         9       103   121.789   121.789
         7         9       103   121.789   121.789
         3         9       104   121.789   121.789
         4         9       104   121.789   121.789
         5         9       104   121.789   121.789
         3         9       105   121.789   121.789
         4         9       105   121.789   121.789
         5         9       105   121.789   121.789
         4         9       106   121.789   121.789
         5         9       106   121.789   121.789
         4         9       107   121.789   121.789
         5         9       107   121.789   121.789
         3         9       108   121.789   121.789
         4         9       108   121.789   121.789
         5         9       108   121.789   121.789
         3         9       109   121.789   121.789
         4         9       109   121.789   121.789
         5         9       109   121.789   121.789
         3        23       209   111.061   111.061
         4        23       209   111.061   111.061
         5        23       209   111.061   111.061
         2        23       210   111.061   111.061
         3        23       210   111.061   111.061
         4        23       210   111.061   111.061
         5        23       210   111.061   111.061
         6        23       210   111.061   111.061
         2        23       211   111.061   111.061
         3        23       211   111.061   111.061
         4        23       211   111.061   111.061
         5        23       211   111.061   111.061
         6        23       211   111.061   111.061
         2        23       212   111.061   111.061
         3        23       212   111.061   111.061
         4        23       212   111.061   111.061
         5        23       212   111.061   111.061
         6        23       212   111.061   111.061
         2        23       213   111.061   111.061
         3        23       213   111.061   111.061
         4        23       213   111.061   111.061
         5        23       213   111.061   111.061
         6        23       213   111.061   111.061
         2        23       214   111.061   111.061
         3        23       214   111.061   111.061
         4        23       214   111.061   111.061
         5        23       214   111.061   111.061
         6        23       214   111.061   111.061
         7        23       214   111.061   111.061
         2        23       215   111.061   111.061
         3        23       215   111.061   111.061
         4        23       215   111.061   111.061
         5        23       215   111.061   111.061
         6        23       215   111.061   111.061
         7        23       215   111.061   111.061
         2        23       216   111.061   111.061
         3        23       216   111.061   111.061
         4        23       216   111.061   111.061
         5        23       216   111.061   111.061
         6        23       216   111.061   111.061
         7        23       216   111.061   111.061
         1        23       217   111.061   111.061
         2        23       217   111.061   111.061
         3        23       217   111.061   111.061
         4        23       217   111.061   111.061
         5        23       217   111.061   111.061
         6        23       217   111.061   111.061
         7        23       217   111.061   111.061
         1        23       218   111.061   111.061
         2        23       218   111.061   111.061
         3        23       218   111.061   111.061
         4        23       218   111.061   111.061
         5        23       218   111.061   111.061
         6        23       218   111.061   111.061
         7        23       218   111.061   111.061
         1        23       219   111.061   111.061
         2        23       219   111.061   111.061
         3        23       219   111.061   111.061
         4        23       219   111.061   111.061
         5        23       219   111.061   111.061
         6        23       219   111.061   111.061
         7        23       219   111.061   111.061
         1        23       220   111.061   111.061
         2        23       220   111.061   111.061
         3        23       220   111.061   111.061
         4        23       220   111.061   111.061
         5        23       220   111.061   111.061
         6        23       220   111.061   111.061
         7        23       220   111.061   111.061
         1        23       221   111.061   111.061
         2        23       221   111.061   111.061
         3        23       221   111.061   111.061
         4        23       221   111.061   111.061
         5        23       221   111.061   111.061
         6        23       221   111.061   111.061
         7        23       221   111.061   111.061
         1        23       222   111.061   111.061
         2        23       222   111.061   111.061
         3        23       222   111.061   111.061
         4        23       222   111.061   111.061
         5        23       222   111.061   111.061
         6        23       222   111.061   111.061
         7        23       222   111.061   111.061
         2       139       126   126.544   126.544
         3       139       126   126.544   126.544
         4       139       126   126.544   126.544
         5       139       126   126.544   126.544
         6       139       126   126.544   126.544
         2       140       126   126.544   126.544
         3       140       126   126.544   126.544
         4       140       126   126.544   126.544
         5       140       126   126.544   126.544
         6       140       126   126.544   126.544
         2       141       126   126.544   126.544
         3       141       126   126.544   126.544
         4       141       126   126.544   126.544
         5       141       126   126.544   126.544
         6       141       126   126.544   126.544
         2       142       126   126.544   126.544
         3       142       126   126.544   126.544
         4       142       126   126.544   126.544
         5       142       126   126.544   126.544
         6       142       126   126.544   126.544
         2       143       126   126.544   126.544
         3       143       126   126.544   126.544
         4       143       126   126.544   126.544
         5       143       126   126.544   126.544
         6       143       126   126.544   126.544
         7       143       126   126.544   126.544
         2       144       126   126.544   126.544
         3       144       126   126.544   126.544
         4       144       126   126.544   126.544
         5       144       126   126.544   126.544
         6       144       126   126.544   126.544
         7       144       126   126.544   126.544
         2       145       126   126.544   126.544
         3       145       126   126.544   126.544
         4       145       126   126.544   126.544
         5       145       126   126.544   126.544
         6       145       126   126.544   126.544
         7       145       126   126.544   126.544
         2       146       126   126.544   126.544
         3       146       126   126.544   126.544
         4       146       126   126.544   126.544
         5       146       126   126.544   126.544
         6       146       126   126.544   126.544
         7       146       126   126.544   126.544
         2       147       126   126.544   126.544
         3       147       126   126.544   126.544
         4       147       126   126.544   126.544
         5       147       126   126.544   126.544
         6       147       126   126.544   126.544
         7       147       126   126.544   126.544
         2       148       126   126.544   126.544
         3       148       126   126.544   126.544
         4       148       126   126.544   126.544
         5       148       126   126.544   126.544
         6       148       126   126.544   126.544
         7       148       126   126.544   126.544
         2       149       126   126.544   126.544
         3       149       126   126.544   126.544
         4       149       126   126.544   126.544
         5       149       126   126.544   126.544
         6       149       126   126.544   126.544
         7       149       126   126.544   126.544
         2       150       126   126.544   126.544
         3       150       126   126.544   126.544
         4       150       126   126.544   126.544
         5       150       126   126.544   126.544
         6       150       126   126.544   126.544
         7       150       126   126.544   126.544
         2       151       126   126.544   126.544
         3       151       126   126.544   126.544
         4       151       126   126.544   126.544
         5       151       126   126.544   126.544
         6       151       126   126.544   126.544
         7       151       126   126.544   126.544
         2       152       126   126.544   126.544
         3       152       126   126.544   126.544
         4       152       126   126.544   126.544
         5       152       126   126.544   126.544
         6       152       126   126.544   126.544
       294                                    STRESS PERIOD	2	FEB	2015
         2         1        26   123.385   123.385
         3         1        26   123.385   123.385
         2         2        24   123.385   123.385
         3         2        24   123.385   123.385
         4         2        24   123.385   123.385
         5         2        24   123.385   123.385
         6         2        24   123.385   123.385
         7         2        24   123.385   123.385
         2         2        25   123.385   123.385
         3         2        25   123.385   123.385
         4         2        25   123.385   123.385
         5         2        25   123.385   123.385
         6         2        25   123.385   123.385
         7         2        25   123.385   123.385
         5         3        19   123.385   123.385
         6         3        19   123.385   123.385
         5         3        20   123.385   123.385
         6         3        20   123.385   123.385
         7         3        20   123.385   123.385
         4         3        21   123.385   123.385
         5         3        21   123.385   123.385
         6         3        21   123.385   123.385
         7         3        21   123.385   123.385
         3         3        22   123.385   123.385
         4         3        22   123.385   123.385
         5         3        22   123.385   123.385
         6         3        22   123.385   123.385
         7         3        22   123.385   123.385
         3         3        23   123.385   123.385
         4         3        23   123.385   123.385
         5         3        23   123.385   123.385
         6         3        23   123.385   123.385
         7         3        23   123.385   123.385
         3         8       110   121.782   121.782
         4         8       110   121.782   121.782
         5         8       110   121.782   121.782
         2         8       111   121.782   121.782
         3         8       111   121.782   121.782
         4         8       111   121.782   121.782
         5         8       111   121.782   121.782
         2         8       112   121.782   121.782
         3         8       112   121.782   121.782
         4         8       112   121.782   121.782
         5         8       112   121.782   121.782
         2         8       113   121.782   121.782
         3         8       113   121.782   121.782
         4         8       113   121.782   121.782
         5         8       113   121.782   121.782
         2         8       114   121.782   121.782
         3         8       114   121.782   121.782
         4         8       114   121.782   121.782
         5         8       114   121.782   121.782
         2         8       115   121.782   121.782
         3         8       115   121.782   121.782
         4         8       115   121.782   121.782
         5         8       115   121.782   121.782
         5         9        88   121.782   121.782
         4         9        89   121.782   121.782
         5         9        89   121.782   121.782
         4         9        90   121.782   121.782
         5         9        90   121.782   121.782
         3         9        91   121.782   121.782
         4         9        91   121.782   121.782
         5         9        91   121.782   121.782
         3         9        92   121.782   121.782
         4         9        92   121.782   121.782
         5         9        92   121.782   121.782
         3         9        93   121.782   121.782
         4         9        93   121.782   121.782
         5         9        93   121.782   121.782
         3         9        94   121.782   121.782
         4         9        94   121.782   121.782
         5         9        94   121.782   121.782
         3         9        95   121.782   121.782
         4         9        95   121.782   121.782
         5         9        95   121.782   121.782
         3         9        96   121.782   121.782
         4         9        96   121.782   121.782
         5         9        96   121.782   121.782
         6         9        96   121.782   121.782
         7         9        96   121.782   121.782
         3         9        97   121.782   121.782
         4         9        97   121.782   121.782
         5         9        97   121.782   121.782
         6         9        97   121.782   121.782
         7         9        97   121.782   121.782
         3         9        98   121.782   121.782
         4         9        98   121.782   121.782
         5         9        98   121.782   121.782
         6         9        98   121.782   121.782
         7         9        98   121.782   121.782
         3         9        99   121.782   121.782
         4         9        99   121.782   121.782
         5         9        99   121.782   121.782
         6         9        99   121.782   121.782
         7         9        99   121.782   121.782
         3         9       100   121.782   121.782
         4         9       100   121.782   121.782
         5         9       100   121.782   121.782
         6         9       100   121.782   121.782
         7         9       100   121.782   121.782
         3         9       101   121.782   121.782
         4         9       101   121.782   121.782
         5         9       101   121.782   121.782
         6         9       101   121.782   121.782
         7         9       101   121.782   121.782
         3         9       102   121.782   121.782
         4         9       102   121.782   121.782
         5         9       102   121.782   121.782
         6         9       102   121.782   121.782
         7         9       102   121.782   121.782
         3         9       103   121.782   121.782
         4         9       103   121.782   121.782
         5         9       103   121.782   121.782
         6         9       103   121.782   121.782
         7         9       103   121.782   121.782
         3         9       104   121.782   121.782
         4         9       104   121.782   121.782
         5         9       104   121.782   121.782
         3         9       105   121.782   121.782
         4         9       105   121.782   121.782
         5         9       105   121.782   121.782
         4         9       106   121.782   121.782
         5         9       106   121.782   121.782
         4         9       107   121.782   121.782
         5         9       107   121.782   121.782
         3         9       108   121.782   121.782
         4         9       108   121.782   121.782
         5         9       108   121.782   121.782
         3         9       109   121.782   121.782
         4         9       109   121.782   121.782
         5         9       109   121.782   121.782
         3        23       209   111.079   111.079
         4        23       209   111.079   111.079
         5        23       209   111.079   111.079
         2        23       210   111.079   111.079
         3        23       210   111.079   111.079
         4        23       210   111.079   111.079
         5        23       210   111.079   111.079
         6        23       210   111.079   111.079
         2        23       211   111.079   111.079
         3        23       211   111.079   111.079
         4        23       211   111.079   111.079
         5        23       211   111.079   111.079
         6        23       211   111.079   111.079
         2        23       212   111.079   111.079
         3        23       212   111.079   111.079
         4        23       212   111.079   111.079
         5        23       212   111.079   111.079
         6        23       212   111.079   111.079
         2        23       213   111.079   111.079
         3        23       213   111.079   111.079
         4        23       213   111.079   111.079
         5        23       213   111.079   111.079
         6        23       213   111.079   111.079
         2        23       214   111.079   111.079
         3        23       214   111.079   111.079
         4        23       214   111.079   111.079
         5        23       214   111.079   111.079
         6        23       214   111.079   111.079
         7        23       214   111.079   111.079
         2        23       215   111.079   111.079
         3        23       215   111.079   111.079
         4        23       215   111.079   111.079
         5        23       215   111.079   111.079
         6        23       215   111.079   111.079
         7        23       215   111.079   111.079
         2        23       216   111.079   111.079
         3        23       216   111.079   111.079
         4        23       216   111.079   111.079
         5        23       216   111.079   111.079
         6        23       216   111.079   111.079
         7        23       216   111.079   111.079
         1        23       217   111.079   111.079
         2        23       217   111.079   111.079
         3        23       217   111.079   111.079
         4        23       217   111.079   111.079
         5        23       217   111.079   111.079
         6        23       217   111.079   111.079
         7        23       217   111.079   111.079
         1        23       218   111.079   111.079
         2        23       218   111.079   111.079
         3        23       218   111.079   111.079
         4        23       218   111.079   111.079
         5        23       218   111.079   111.079
         6        23       218   111.079   111.079
         7        23       218   111.079   111.079
         1        23       219   111.079   111.079
         2        23       219   111.079   111.079
         3        23       219   111.079   111.079
         4        23       219   111.079   111.079
         5        23       219   111.079   111.079
         6        23       219   111.079   111.079
         7        23       219   111.079   111.079
         1        23       220   111.079   111.079
         2        23       220   111.079   111.079
         3        23       220   111.079   111.079
         4        23       220   111.079   111.079
         5        23       220   111.079   111.079
         6        23       220   111.079   111.079
         7        23       220   111.079   111.079
         1        23       221   111.079   111.079
         2        23       221   111.079   111.079
         3        23       221   111.079   111.079
         4        23       221   111.079   111.079
         5        23       221   111.079   111.079
         6        23       221   111.079   111.079
         7        23       221   111.079   111.079
         1        23       222   111.079   111.079
         2        23       222   111.079   111.079
         3        23       222   111.079   111.079
         4        23       222   111.079   111.079
         5        23       222   111.079   111.079
         6        23       222   111.079   111.079
         7        23       222   111.079   111.079
         2       139       126   126.540   126.540
         3       139       126   126.540   126.540
         4       139       126   126.540   126.540
         5       139       126   126.540   126.540
         6       139       126   126.540   126.540
         2       140       126   126.540   126.540
         3       140       126   126.540   126.540
         4       140       126   126.540   126.540
         5       140       126   126.540   126.540
         6       140       126   126.540   126.540
         2       141       126   126.540   126.540
         3       141       126   126.540   126.540
         4       141       126   126.540   126.540
         5       141       126   126.540   126.540
         6       141       126   126.540   126.540
         2       142       126   126.540   126.540
         3       142       126   126.540   126.540
         4       142       126   126.540   126.540
         5       142       126   126.540   126.540
         6       142       126   126.540   126.540
         2       143       126   126.540   126.540
         3       143       126   126.540   126.540
         4       143       126   126.540   126.540
         5       143       126   126.540   126.540
         6       143       126   126.540   126.540
         7       143       126   126.540   126.540
         2       144       126   126.540   126.540
         3       144       126   126.540   126.540
         4       144       126   126.540   126.540
         5       144       126   126.540   126.540
         6       144       126   126.540   126.540
         7       144       126   126.540   126.540
         2       145       126   126.540   126.540
         3       145       126   126.540   126.540
         4       145       126   126.540   126.540
         5       145       126   126.540   126.540
         6       145       126   126.540   126.540
         7       145       126   126.540   126.540
         2       146       126   126.540   126.540
         3       146       126   126.540   126.540
         4       146       126   126.540   126.540
         5       146       126   126.540   126.540
         6       146       126   126.540   126.540
         7       146       126   126.540   126.540
         2       147       126   126.540   126.540
         3       147       126   126.540   126.540
         4       147       126   126.540   126.540
         5       147       126   126.540   126.540
         6       147       126   126.540   126.540
         7       147       126   126.540   126.540
         2       148       126   126.540   126.540
         3       148       126   126.540   126.540
         4       148       126   126.540   126.540
         5       148       126   126.540   126.540
         6       148       126   126.540   126.540
         7       148       126   126.540   126.540
         2       149       126   126.540   126.540
         3       149       126   126.540   126.540
         4       149       126   126.540   126.540
         5       149       126   126.540   126.540
         6       149       126   126.540   126.540
         7       149       126   126.540   126.540
         2       150       126   126.540   126.540
         3       150       126   126.540   126.540
         4       150       126   126.540   126.540
         5       150       126   126.540   126.540
         6       150       126   126.540   126.540
         7       150       126   126.540   126.540
         2       151       126   126.540   126.540
         3       151       126   126.540   126.540
         4       151       126   126.540   126.540
         5       151       126   126.540   126.540
         6       151       126   126.540   126.540
         7       151       126   126.540   126.540