# MODFLOW2005 Basic Package
#MODFLOW2000 Dataset Imported into Groundwater Vistas
#  
SHOWPROGRESS 
OPEN/CLOSE ibnd1.inf   1  (25I3)                      -1
OPEN/CLOSE ibnd2.inf   1  (25I3)                      -1
OPEN/CLOSE ibnd3.inf   1  (25I3)                      -1
OPEN/CLOSE ibnd4.inf   1  (25I3)                      -1
OPEN/CLOSE ibnd5.inf   1  (25I3)                      -1
OPEN/CLOSE ibnd6.inf   1  (25I3)                      -1
OPEN/CLOSE ibnd7.inf   1  (25I3)                      -1
-9.990e+02
       -15       1.0(7E14.6)                    -1     STARTING HEADS Layer    1
       -15       1.0(7E14.6)                    -1     STARTING HEADS Layer    2
       -15       1.0(7E14.6)                    -1     STARTING HEADS Layer    3
       -15       1.0(7E14.6)                    -1     STARTING HEADS Layer    4
       -15       1.0(7E14.6)                    -1     STARTING HEADS Layer    5
       -15       1.0(7E14.6)                    -1     STARTING HEADS Layer    6
       -15       1.0(7E14.6)                    -1     STARTING HEADS Layer    7